
     RDKit          3D

 37 40  0  0  0  0  0  0  0  0999 V2000
   -0.8243    3.6640   -0.7777 N   0  0  0  0  0  0  0  0  0  0  0  0
   -0.8548    2.2403   -0.7153 C   0  0  0  0  0  0  0  0  0  0  0  0
   -1.9515    1.6029   -0.1945 N   0  0  0  0  0  0  0  0  0  0  0  0
   -2.0329    0.2387   -0.1075 C   0  0  0  0  0  0  0  0  0  0  0  0
   -3.2476   -0.3950    0.4670 C   0  0  0  0  0  0  0  0  0  0  0  0
   -4.2738    0.3914    1.0225 C   0  0  0  0  0  0  0  0  0  0  0  0
   -5.4084   -0.2278    1.5511 C   0  0  0  0  0  0  0  0  0  0  0  0
   -5.5186   -1.6177    1.5241 C   0  0  0  0  0  0  0  0  0  0  0  0
   -4.4862   -2.3713    0.9652 C   0  0  0  0  0  0  0  0  0  0  0  0
   -3.3895   -1.7502    0.4555 N   0  0  0  0  0  0  0  0  0  0  0  0
   -0.9320   -0.4872   -0.5807 C   0  0  0  0  0  0  0  0  0  0  0  0
   -0.5933   -1.8300   -0.6509 C   0  0  0  0  0  0  0  0  0  0  0  0
    0.6467   -1.9349   -1.1916 N   0  0  0  0  0  0  0  0  0  0  0  0
    1.0844   -0.7124   -1.4710 N   0  0  0  0  0  0  0  0  0  0  0  0
    2.4140   -0.4161   -1.9960 C   0  0  0  0  0  0  0  0  0  0  0  0
    3.3742   -0.1843   -0.8601 C   0  0  0  0  0  0  0  0  0  0  0  0
    3.9239   -1.2840   -0.1798 C   0  0  0  0  0  0  0  0  0  0  0  0
    4.7875   -1.0858    0.9015 C   0  0  0  0  0  0  0  0  0  0  0  0
    5.1022    0.2099    1.3177 C   0  0  0  0  0  0  0  0  0  0  0  0
    4.5516    1.3100    0.6551 C   0  0  0  0  0  0  0  0  0  0  0  0
    3.6867    1.1189   -0.4278 C   0  0  0  0  0  0  0  0  0  0  0  0
    3.1593    2.2029   -1.0510 F   0  0  0  0  0  0  0  0  0  0  0  0
    0.1432    0.1673   -1.0961 C   0  0  0  0  0  0  0  0  0  0  0  0
    0.2093    1.5171   -1.1720 N   0  0  0  0  0  0  0  0  0  0  0  0
   -1.6331    4.2255   -0.4302 H   0  0  0  0  0  0  0  0  0  0  0  0
    0.0077    4.1580   -1.1701 H   0  0  0  0  0  0  0  0  0  0  0  0
   -4.2018    1.4713    1.0515 H   0  0  0  0  0  0  0  0  0  0  0  0
   -6.2015    0.3701    1.9813 H   0  0  0  0  0  0  0  0  0  0  0  0
   -6.3945   -2.1059    1.9314 H   0  0  0  0  0  0  0  0  0  0  0  0
   -4.5559   -3.4504    0.9354 H   0  0  0  0  0  0  0  0  0  0  0  0
   -1.1784   -2.6770   -0.3244 H   0  0  0  0  0  0  0  0  0  0  0  0
    2.7657   -1.2690   -2.6165 H   0  0  0  0  0  0  0  0  0  0  0  0
    2.3668    0.4681   -2.6678 H   0  0  0  0  0  0  0  0  0  0  0  0
    3.6812   -2.2942   -0.4859 H   0  0  0  0  0  0  0  0  0  0  0  0
    5.2099   -1.9373    1.4191 H   0  0  0  0  0  0  0  0  0  0  0  0
    5.7699    0.3617    2.1558 H   0  0  0  0  0  0  0  0  0  0  0  0
    4.7939    2.3125    0.9836 H   0  0  0  0  0  0  0  0  0  0  0  0
  1  2  1  0
  2  3  2  0
  3  4  1  0
  4  5  1  0
  5  6  2  0
  6  7  1  0
  7  8  2  0
  8  9  1  0
  9 10  2  0
  4 11  2  0
 11 12  1  0
 12 13  2  0
 13 14  1  0
 14 15  1  0
 15 16  1  0
 16 17  2  0
 17 18  1  0
 18 19  2  0
 19 20  1  0
 20 21  2  0
 21 22  1  0
 14 23  1  0
 23 24  2  0
 24  2  1  0
 10  5  1  0
 23 11  1  0
 21 16  1  0
  1 25  1  0
  1 26  1  0
  6 27  1  0
  7 28  1  0
  8 29  1  0
  9 30  1  0
 12 31  1  0
 15 32  1  0
 15 33  1  0
 17 34  1  0
 18 35  1  0
 19 36  1  0
 20 37  1  0
M  END
$$$$
