
     RDKit          3D

 59 62  0  0  0  0  0  0  0  0999 V2000
   -4.7692   -5.4739   -0.3576 C   0  0  0  0  0  0  0  0  0  0  0  0
   -4.7232   -3.9953   -0.1657 C   0  0  0  0  0  0  0  0  0  0  0  0
   -5.8011   -3.1849    0.1252 C   0  0  0  0  0  0  0  0  0  0  0  0
   -5.2736   -1.9089    0.1319 C   0  0  0  0  0  0  0  0  0  0  0  0
   -6.0616   -0.6624    0.4002 C   0  0  0  0  0  0  0  0  0  0  0  0
   -3.9494   -1.9782   -0.1557 N   0  0  0  0  0  0  0  0  0  0  0  0
   -3.0027   -0.8945   -0.2631 C   0  0  0  0  0  0  0  0  0  0  0  0
   -1.6633   -1.1464   -0.5969 C   0  0  0  0  0  0  0  0  0  0  0  0
   -0.7698   -0.0683   -0.6830 C   0  0  0  0  0  0  0  0  0  0  0  0
    0.6068   -0.2563   -1.0447 N   0  0  0  0  0  0  0  0  0  0  0  0
    1.3933   -1.4002   -0.6736 C   0  0  0  0  0  0  0  0  0  0  0  0
    0.9633   -2.2288    0.1739 O   0  0  0  0  0  0  0  0  0  0  0  0
    2.7753   -1.5759   -1.2337 C   0  0  0  0  0  0  0  0  0  0  0  0
    3.8608   -1.1229   -0.2359 C   0  0  0  0  0  0  0  0  0  0  0  0
    5.2556   -1.5023   -0.7639 C   0  0  0  0  0  0  0  0  0  0  0  0
    6.3528   -0.9971    0.1830 C   0  0  0  0  0  0  0  0  0  0  0  0
    6.2574    0.4662    0.3735 N   0  0  0  0  0  4  0  0  0  0  0  0
    7.3401    0.9316    1.2563 C   0  0  0  0  0  0  0  0  0  0  0  0
    4.9444    0.8388    0.9424 C   0  0  0  0  0  0  0  0  0  0  0  0
    3.7972    0.3953    0.0238 C   0  0  0  0  0  0  0  0  0  0  0  0
   -1.2302    1.1935   -0.4767 N   0  0  0  0  0  0  0  0  0  0  0  0
   -2.5286    1.4289   -0.1560 C   0  0  0  0  0  0  0  0  0  0  0  0
   -2.9889    2.8036    0.0713 C   0  0  0  0  0  0  0  0  0  0  0  0
   -4.2768    3.1868    0.4007 C   0  0  0  0  0  0  0  0  0  0  0  0
   -4.2407    4.5604    0.5159 C   0  0  0  0  0  0  0  0  0  0  0  0
   -2.9360    4.9239    0.2463 C   0  0  0  0  0  0  0  0  0  0  0  0
   -2.4012    6.3161    0.2640 C   0  0  0  0  0  0  0  0  0  0  0  0
   -2.2120    3.8595   -0.0120 O   0  0  0  0  0  0  0  0  0  0  0  0
   -3.3962    0.3892   -0.0493 N   0  0  0  0  0  0  0  0  0  0  0  0
   -3.6178   -3.2479   -0.3444 N   0  0  0  0  0  0  0  0  0  0  0  0
   -5.0740   -5.7022   -1.4000 H   0  0  0  0  0  0  0  0  0  0  0  0
   -3.7675   -5.9125   -0.1657 H   0  0  0  0  0  0  0  0  0  0  0  0
   -5.4997   -5.9266    0.3455 H   0  0  0  0  0  0  0  0  0  0  0  0
   -6.8273   -3.4824    0.2982 H   0  0  0  0  0  0  0  0  0  0  0  0
   -5.6520   -0.1425    1.2910 H   0  0  0  0  0  0  0  0  0  0  0  0
   -7.1256   -0.9109    0.5990 H   0  0  0  0  0  0  0  0  0  0  0  0
   -6.0181    0.0081   -0.4831 H   0  0  0  0  0  0  0  0  0  0  0  0
   -1.3341   -2.1536   -0.8122 H   0  0  0  0  0  0  0  0  0  0  0  0
    1.0933    0.5396   -1.5157 H   0  0  0  0  0  0  0  0  0  0  0  0
    2.9173   -2.6528   -1.4723 H   0  0  0  0  0  0  0  0  0  0  0  0
    2.8712   -1.0126   -2.1877 H   0  0  0  0  0  0  0  0  0  0  0  0
    3.6988   -1.6574    0.7282 H   0  0  0  0  0  0  0  0  0  0  0  0
    5.3364   -2.6079   -0.8513 H   0  0  0  0  0  0  0  0  0  0  0  0
    5.4140   -1.0638   -1.7743 H   0  0  0  0  0  0  0  0  0  0  0  0
    7.3397   -1.2602   -0.2599 H   0  0  0  0  0  0  0  0  0  0  0  0
    6.2673   -1.5270    1.1596 H   0  0  0  0  0  0  0  0  0  0  0  0
    6.3762    0.9410   -0.5538 H   0  0  0  0  0  0  0  0  0  0  0  0
    8.3320    0.6855    0.8171 H   0  0  0  0  0  0  0  0  0  0  0  0
    7.2952    2.0365    1.3763 H   0  0  0  0  0  0  0  0  0  0  0  0
    7.2687    0.4604    2.2621 H   0  0  0  0  0  0  0  0  0  0  0  0
    4.8073    0.3783    1.9479 H   0  0  0  0  0  0  0  0  0  0  0  0
    4.8818    1.9436    1.0646 H   0  0  0  0  0  0  0  0  0  0  0  0
    3.8613    0.9508   -0.9379 H   0  0  0  0  0  0  0  0  0  0  0  0
    2.8339    0.6577    0.5116 H   0  0  0  0  0  0  0  0  0  0  0  0
   -5.1375    2.5464    0.5425 H   0  0  0  0  0  0  0  0  0  0  0  0
   -5.0647    5.2149    0.7675 H   0  0  0  0  0  0  0  0  0  0  0  0
   -3.0576    6.9793   -0.3374 H   0  0  0  0  0  0  0  0  0  0  0  0
   -2.3634    6.6860    1.3097 H   0  0  0  0  0  0  0  0  0  0  0  0
   -1.3779    6.3347   -0.1658 H   0  0  0  0  0  0  0  0  0  0  0  0
  1  2  1  0
  2  3  1  0
  3  4  2  0
  4  5  1  0
  4  6  1  0
  6  7  1  0
  7  8  2  0
  8  9  1  0
  9 10  1  0
 10 11  1  0
 11 12  2  0
 11 13  1  0
 13 14  1  0
 14 15  1  0
 15 16  1  0
 16 17  1  0
 17 18  1  0
 17 19  1  0
 19 20  1  0
  9 21  2  0
 21 22  1  0
 22 23  1  0
 23 24  2  0
 24 25  1  0
 25 26  2  0
 26 27  1  0
 26 28  1  0
 22 29  2  0
  6 30  1  0
 30  2  2  0
 29  7  1  0
 20 14  1  0
 28 23  1  0
  1 31  1  0
  1 32  1  0
  1 33  1  0
  3 34  1  0
  5 35  1  0
  5 36  1  0
  5 37  1  0
  8 38  1  0
 10 39  1  0
 13 40  1  0
 13 41  1  0
 14 42  1  0
 15 43  1  0
 15 44  1  0
 16 45  1  0
 16 46  1  0
 17 47  1  0
 18 48  1  0
 18 49  1  0
 18 50  1  0
 19 51  1  0
 19 52  1  0
 20 53  1  0
 20 54  1  0
 24 55  1  0
 25 56  1  0
 27 57  1  0
 27 58  1  0
 27 59  1  0
M  CHG  1  17   1
M  END
$$$$
